/*--------------------------------*- C++ -*----------------------------------*\
| =========                 |                                                 |
| \\      /  F ield         | OpenFOAM: The Open Source CFD Toolbox           |
|  \\    /   O peration     | Version:  2412                                  |
|   \\  /    A nd           | Website:  www.openfoam.com                      |
|    \\/     M anipulation  |                                                 |
\*---------------------------------------------------------------------------*/
FoamFile
{
    version     2.0;
    format      ascii;
    arch        "LSB;label=32;scalar=64";
    class       polyBoundaryMesh;
    location    "constant/polyMesh";
    object      boundary;
}
// * * * * * * * * * * * * * * * * * * * * * * * * * * * * * * * * * * * * * //

5
(
    leftWall
    {
        type            wall;
        inGroups        1(wall);
        nFaces          60;
        startFace       19620;
    }
    rightWall
    {
        type            wall;
        inGroups        1(wall);
        nFaces          60;
        startFace       19680;
    }
    lowerWall
    {
        type            wall;
        inGroups        1(wall);
        nFaces          720;
        startFace       19740;
    }
    topWall
    {
        type            wall;
        inGroups        1(wall);
        nFaces          720;
        startFace       20460;
    }
    defaultFaces
    {
        type            empty;
        inGroups        1(empty);
        nFaces          2400;
        startFace       21180;
    }
)

// ************************************************************************* //
